%chk=Z:\home\leo\Desktop\inputs_ycx2\f2cs.chk
# hf/3-21g geom=connectivity

Title Card Required

0 1
 C                  0.00000000    0.00000000   -0.56232500
 S                  0.00000000    0.00000000    1.00407500
 F                  0.00000000   -1.16913429   -1.23732500
 F                  0.00000000    1.16913429   -1.23732500

 1 2 2.0 3 1.0 4 1.0
 2
 3
 4

