%chk=Z:\home\leo\Desktop\inputs_ycx2\h2co.chk
# hf/3-21g geom=connectivity

Title Card Required

0 1
 O                  0.00000000    0.00000000    0.69607500
 C                  0.00000000    0.00000000   -0.56232500
 H                  0.00000000    0.92664718   -1.09732500
 H                  0.00000000   -0.92664718   -1.09732500

 1 2 2.0
 2 4 1.0 3 1.0
 3
 4

