%chk=Z:\home\leo\Desktop\inputs_ycx2\cl2co.chk
# hf/3-21g geom=connectivity

Title Card Required

0 1
 O                  0.00000000    0.00000000    0.69607500
 C                  0.00000000    0.00000000   -0.56232500
 Cl                 0.00000000   -1.52420471   -1.44232500
 Cl                 0.00000000    1.52420471   -1.44232500

 1 2 2.0
 2 3 1.0 4 1.0
 3
 4

