%nproc=8
%mem=8GB
#opt qcisd/aug-cc-pvtz density=current nosym

f2co

0 1
 O                  0.00000000    0.00000000    0.69607500
 C                  0.00000000    0.00000000   -0.56232500
 F                  0.00000000   -1.16913429   -1.23732500
 F                  0.00000000    1.16913429   -1.23732500

