%nproc=8
%mem=8GB
#opt qcisd/aug-cc-pvtz density=current nosym

h2cs

0 1
 C                  0.00000000    0.00000000   -0.56232500
 S                  0.00000000    0.00000000    1.00407500
 H                  0.00000000   -0.92664718   -1.09732500
 H                  0.00000000    0.92664718   -1.09732500

